data/IEEE39.DAT
(POWERFLOW,CASEID=IEEE,PROJECT=TEST)
/P_INPUT_LIST,ZONES=ALL\
/P_OUTPUT_LIST,ZONES=ALL\
/MVA_BASE=100\
/P_ANALYSIS_RPT,LEVEL=4\
/RPT_SORT=ZONE\
/NEW_BASE,FILE=IEEE39.BSE\
/NETWORK_DATA\
B     BUS-1   345 1 97.6 44.2 0   0                      1.060.94
B     BUS-2   345 1 0    0    0   0                      1.060.94
B     BUS-3   345 1 322  2.4  0   0                      1.060.94
B     BUS-4   345 1 500  184  0   0                      1.060.94
B     BUS-5   345 1 0    0    0   0                      1.060.94
B     BUS-6   345 1 0    0    0   0                      1.060.94
B     BUS-7   345 1 233.884   0   0                      1.060.94
B     BUS-8   345 1 522  176.60   0                      1.060.94
B     BUS-9   345 1 6.5  -66.60   0                      1.060.94
B     BUS-10  345 1 0    0    0   0                      1.060.94
B     BUS-11  345 1 0    0    0   0                      1.060.94
B     BUS-12  345 1 8.53 88   0   0                      1.060.94
B     BUS-13  345 1 0    0    0   0                      1.060.94
B     BUS-14  345 1 0    0    0   0                      1.060.94
B     BUS-15  345 1 320  153  0   0                      1.060.94
B     BUS-16  345 1 329  32.3 0   0                      1.060.94
B     BUS-17  345 1 0    0    0   0                      1.060.94
B     BUS-18  345 1 158  30   0   0                      1.060.94
B     BUS-19  345 1 0    0    0   0                      1.060.94
B     BUS-20  345 1 680  103  0   0                      1.060.94
B     BUS-21  345 1 274  115  0   0                      1.060.94
B     BUS-22  345 1 0    0    0   0                      1.060.94
B     BUS-23  345 1 247.584.6 0   0                      1.060.94
B     BUS-24  345 1 308.6-92.20   0                      1.060.94
B     BUS-25  345 1 224  47.2 0   0                      1.060.94
B     BUS-26  345 1 139  17   0   0                      1.060.94
B     BUS-27  345 1 281  75.5 0   0                      1.060.94
B     BUS-28  345 1 206  27.6 0   0                      1.060.94
B     BUS-29  345 1 283.526.9 0   0                      1.060.94
BQ    BUS-30  345 1 0    0    0   0   1040250  400  140  1.040.94
BS    BUS-31  345 1 9.2  4.6  0   0   646 677.8300  -100 0.980   
BQ    BUS-32  345 1 0    0    0   0   725 650  300  150  0.980.94
BQ    BUS-33  345 1 0    0    0   0   652 632  250  0    0.990.94
BQ    BUS-34  345 1 0    0    0   0   508 508  167  0    1.010.94
BQ    BUS-35  345 1 0    0    0   0   687 650  300  -100 1.040.94
BQ    BUS-36  345 1 0    0    0   0   580 560  240  0    1.060.94
BQ    BUS-37  345 1 0    0    0   0   564 540  250  0    1.020.94
BQ    BUS-38  345 1 0    0    0   0   865 830  300  -150 1.020.94
BQ    BUS-39  345 1 1104 250  0   0   11001000 300  -100 1.030.94
L     BUS-1   345  BUS-2   345 0      0.00350.0411      0.3493                  
L     BUS-1   345  BUS-39  345 1      0.001 0.025       0.375                   
L     BUS-2   345  BUS-3   345 2      0.00130.0151      0.1286                  
L     BUS-2   345  BUS-25  345 3      0.007 0.0086      0.073                   
T     BUS-2   345  BUS-30  345 4      0     0.0181      0     353.6345.0        
L     BUS-3   345  BUS-4   345 5      0.00130.0213      0.1107                  
L     BUS-3   345  BUS-18  345 6      0.00110.0133      0.1069                  
L     BUS-4   345  BUS-5   345 7      0.00080.0128      0.0671                  
L     BUS-4   345  BUS-14  345 8      0.00080.0129      0.0691                  
L     BUS-5   345  BUS-6   345 9      0.00020.0026      0.0217                  
L     BUS-5   345  BUS-8   345 0      0.00080.0112      0.0738                  
L     BUS-6   345  BUS-7   345 1      0.00060.0092      0.0565                  
L     BUS-6   345  BUS-11  345 2      0.00070.0082      0.0694                  
T     BUS-6   345  BUS-31  345 3      0     0.025       0     369.1345.0        
L     BUS-7   345  BUS-8   345 4      0.00040.0046      0.039                   
L     BUS-8   345  BUS-9   345 5      0.00230.0363      0.1902                  
L     BUS-9   345  BUS-39  345 6      0.001 0.025       0.6                     
L     BUS-10  345  BUS-11  345 7      0.00040.0043      0.0364                  
L     BUS-10  345  BUS-13  345 8      0.00040.0043      0.0364                  
T     BUS-10  345  BUS-32  345 9      0     0.02        0     369.1345.0        
T     BUS-12  345  BUS-11  345 0      0.00160.0435      0     347.0345.0        
T     BUS-12  345  BUS-13  345 1      0.00160.0435      0     347.0345.0        
L     BUS-13  345  BUS-14  345 2      0.00090.0101      0.0861                  
L     BUS-14  345  BUS-15  345 3      0.00180.0217      0.183                   
L     BUS-15  345  BUS-16  345 4      0.00090.0094      0.0855                  
L     BUS-16  345  BUS-17  345 5      0.00070.0089      0.0671                  
L     BUS-16  345  BUS-19  345 6      0.00160.0195      0.152                   
L     BUS-16  345  BUS-21  345 7      0.00080.0135      0.1274                  
L     BUS-16  345  BUS-24  345 8      0.00030.0059      0.034                   
L     BUS-17  345  BUS-18  345 9      0.00070.0082      0.0659                  
L     BUS-17  345  BUS-27  345 0      0.00130.0173      0.1608                  
T     BUS-19  345  BUS-20  345 1      0.00070.0138      0     365.7345.0        
T     BUS-19  345  BUS-33  345 2      0.00070.0142      0     369.1345.0        
T     BUS-20  345  BUS-34  345 3      0.00090.018       0     348.1345.0        
L     BUS-21  345  BUS-22  345 4      0.00080.014       0.1282                  
L     BUS-22  345  BUS-23  345 5      0.00060.0096      0.0923                  
T     BUS-22  345  BUS-35  345 6      0     0.0143      0     353.6345.0        
L     BUS-23  345  BUS-24  345 7      0.00220.035       0.1805                  
T     BUS-23  345  BUS-36  345 8      0.00050.0272      0     345.0345.0        
L     BUS-25  345  BUS-26  345 9      0.00320.0323      0.2655                  
T     BUS-25  345  BUS-37  345 0      0.00060.0232      0     353.6345.0        
L     BUS-26  345  BUS-27  345 1      0.00140.0147      0.1198                  
L     BUS-26  345  BUS-28  345 2      0.00430.0474      0.3901                  
L     BUS-26  345  BUS-29  345 3      0.00570.0625      0.5145                  
L     BUS-28  345  BUS-29  345 4      0.00140.0151      0.1245                  
T     BUS-29  345  BUS-38  345 5      0.00080.0156      0     353.6345.0        
/SOLUTION\
>SOL_ITER,DECOUPLED=2,NEWTON=15<
(END)
